&NAMCLDDET
N__Band_Size(1)=138
N__Bands(1:138,1) =
  38,   49,   51,   55,   57,   61,   63,   85,   87,  104,
 109,  116,  122,  128,  135,  141,  146,  148,  154,  159,
 161,  167,  173,  179,  180,  185,  187,  193,  199,  205,
 207,  210,  212,  214,  217,  219,  222,  224,  226,  230,
 232,  236,  239,  242,  243,  246,  249,  252,  254,  256,
 258,  260,  262,  265,  267,  269,  275,  278,  280,  282,
 284,  286,  288,  290,  292,  294,  296,  299,  306,  308,
 310,  312,  314,  316,  318,  320,  323,  325,  327,  329,
 331,  333,  335,  341,  347,  350,  352,  354,  356,  358,
 360,  362,  364,  366,  369,  371,  373,  375,  377,  379,
 381,  383,  386,  389,  404,  407,  410,  414,  416,  426,
 428,  432,  434,  445,  457,  515,  546,  552,  566,  571,
 573,  646,  662,  668,  756,  867,  921, 1027, 1133, 1191,
1194, 1271, 1805, 1884, 1946, 1991, 2094, 2239
/
